3
9
.tran 1u 300u 0
10
2
R1
I
2
R2
I
2
R3
I
2
R4
I
2
V1
I
1
/ABOVE
V
1
/BELOW
V
1
/CC
V
1
/VTG
V
1
VPP
V
9
.tran 1u 252u 249.9u
10
2
R1
I
2
R3
I
2
Q5
Ic
2
Q6
Ic
1
/AA
V
1
/ABOVE
V
1
/BB
V
1
/G1
V
1
/G3
V
1
/VTG
V
9
.tran 100n 41u 39.9u
7
2
R2
I
1
/AA
V
1
/BB
V
1
/BELOW
V
1
/CC
V
1
/VTG
V
1
/nLED2
V
